Circuit: * C:\repotenciostato\proyecto-final\ltspice\calculos version reducida\amplificador_dac.asc

V2: Removing PWL point (0.00019999,0)
V2: Removing PWL point (0.0511,0)
V2: Removing PWL point (0.1023,0)
V3: Removing PWL point (0.00019999,0)
V3: Removing PWL point (0.0511,0)
V3: Removing PWL point (0.1023,0)
Early termination of direct N-R iteration.
Direct Newton iteration failed to find .op point.  (Use ".option noopiter" to skip.)
Starting Gmin stepping
Gmin = 10
vernier = 0.5
Gmin = 1.86414
vernier = 0.25
vernier = 0.125
vernier = 0.0625
vernier = 0.03125
Gmin = 1.74088
vernier = 0.015625
vernier = 0.0078125
vernier = 0.00390625
vernier = 0.00195313
Gmin = 1.72987
vernier = 0.00260417
Gmin = 1.71977
vernier = 0.00347222
vernier = 0.00173611
vernier = 0.000868055
vernier = 0.00115741
Gmin = 1.71691
vernier = 0.00154321
vernier = 0.000771604
vernier = 0.000578703
Gmin = 1.71336
vernier = 0.000771604
Gmin = 1.71038
vernier = 0.00102881
vernier = 0.000514403
Singular matrix:  Check node v:u4:ln#branch
   Iteration No. 2
Gmin = 0
Singular matrix:  Check node v:u4:ln#branch
   Iteration No. 1
Gmin stepping failed

Starting source stepping with srcstepmethod=0
Source Step = 3.0303%
Source Step = 33.3333%
Source Step = 63.6364%
Source Step = 93.9394%
Source stepping succeeded in finding the operating point.


Date: Sat Nov 27 21:14:48 2021
Total elapsed time: 12.571 seconds.

tnom = 27
temp = 27
method = modified trap
totiter = 118420
traniter = 114246
tranpoints = 57123
accept = 47719
rejected = 9404
matrix size = 74
fillins = 204
solver = Normal
Thread vector: 38.7/34.9[2] 13.6/12.4[2] 13.9/11.4[2] 1.5/11.0[1]  2592/500
Matrix Compiler1: 10.97 KB object code size  9.2/5.9/[3.1]
Matrix Compiler2: 10.23 KB object code size  6.0/7.3/[2.4]

