Circuit: * D:\UTN\Proyecto Final\drive\desarrollo\software\repo\proyecto-final\ltspice\potencioV2\potenciostatov2.asc

Direct Newton iteration failed to find .op point.  (Use ".option noopiter" to skip.)
Starting Gmin stepping
Gmin = 10
Gmin = 1.07374
vernier = 0.5
vernier = 0.25
vernier = 0.125
vernier = 0.0625
vernier = 0.03125
Gmin = 1.0412
vernier = 0.015625
vernier = 0.0078125
Gmin = 1.0132
vernier = 0.00390625
vernier = 0.00195313
Gmin = 1.00827
vernier = 0.00260417
vernier = 0.00130208
Gmin = 1.00515
vernier = 0.000651042
vernier = 0.000868055
vernier = 0.000434028
Gmin = 1.00434
vernier = 0.000578703
vernier = 0.000434027
Gmin = 1.00339
Gmin = 0
Gmin stepping failed

Starting source stepping with srcstepmethod=0
Source Step = 3.0303%
Source Step = 33.3333%
Source Step = 63.6364%
Source Step = 93.9394%
Source stepping succeeded in finding the operating point.


Date: Sat Oct 29 16:43:29 2022
Total elapsed time: 1.286 seconds.

tnom = 27
temp = 27
method = modified trap
totiter = 6898
traniter = 2096
tranpoints = 1049
accept = 1049
rejected = 0
matrix size = 69
fillins = 107
solver = Normal
Thread vector: 23.5/14.9[8] 17.6/11.4[8] 11.8/7.9[8] 0.3/1.2[1]  2592/500
Matrix Compiler1: 9.09 KB object code size  5.6/3.1/[1.4]
Matrix Compiler2: 9.48 KB object code size  1.2/2.0/[0.4]

