Circuit: * C:\Facultad\proyecto final\potenciostato\ltspice\potencioV2\potenciostatov2.asc

Direct Newton iteration failed to find .op point.  (Use ".option noopiter" to skip.)
Starting Gmin stepping
Gmin = 10
Gmin = 1.07374
vernier = 0.5
vernier = 0.25
vernier = 0.125
vernier = 0.0625
vernier = 0.03125
Gmin = 1.0412
vernier = 0.015625
vernier = 0.0078125
Gmin = 1.0132
vernier = 0.00390625
vernier = 0.00195313
Gmin = 1.00827
vernier = 0.00260417
vernier = 0.00130208
Gmin = 1.00515
vernier = 0.000651042
vernier = 0.000868055
vernier = 0.000434028
Gmin = 1.00434
vernier = 0.000578703
vernier = 0.000434027
Gmin = 1.00339
Gmin = 0
Gmin stepping failed

Starting source stepping with srcstepmethod=0
Source Step = 3.0303%
Source Step = 33.3333%
Source Step = 63.6364%
Source Step = 93.9394%
Source stepping succeeded in finding the operating point.


Date: Thu Oct 27 23:12:12 2022
Total elapsed time: 0.877 seconds.

tnom = 27
temp = 27
method = modified trap
totiter = 6910
traniter = 2096
tranpoints = 1049
accept = 1049
rejected = 0
matrix size = 70
fillins = 110
solver = Normal
Thread vector: 28.4/12.1[8] 9.1/4.4[8] 5.3/3.2[8] 0.4/3.8[1]  2592/500
Matrix Compiler1: 9.10 KB object code size  2.9/1.4/[0.6]
Matrix Compiler2: 9.70 KB object code size  1.6/1.7/[0.5]

