Circuit: * C:\Facultad\proyecto final\proyecto-final\ltspice\potencioV2\potenciostatov2.asc

Direct Newton iteration failed to find .op point.  (Use ".option noopiter" to skip.)
Starting Gmin stepping
Gmin = 10
Gmin = 1.07374
Gmin = 0.115292
Gmin = 0.0123794
Gmin = 0.00132923
Gmin = 0.000142725
Gmin = 1.5325e-005
Gmin = 1.6455e-006
Gmin = 1.76685e-007
Gmin = 1.89714e-008
Gmin = 2.03704e-009
Gmin = 2.18725e-010
Gmin = 2.34854e-011
Gmin = 2.52173e-012
Gmin = 2.70769e-013
Gmin = 0
Gmin stepping succeeded in finding the operating point.


Date: Sun Sep 04 21:34:24 2022
Total elapsed time: 0.172 seconds.

tnom = 27
temp = 27
method = modified trap
totiter = 2691
traniter = 2096
tranpoints = 1049
accept = 1049
rejected = 0
matrix size = 56
fillins = 65
solver = Normal
Thread vector: 22.6/11.6[6] 6.9/4.8[6] 5.2/2.6[6] 0.3/0.6[1]  2592/500
Matrix Compiler1: 5.29 KB object code size  2.0/0.8/[0.5]
Matrix Compiler2: 7.32 KB object code size  0.9/1.4/[0.5]

